          12
   ETOT =    -2334.568778      T_instantaneous =    500.0000
  C      -0.099634      1.521067      0.190188
  C       3.352529      0.573140      0.111361
  C       3.727602      2.467805      0.402153
  C       0.278275      4.637572      1.367265
  C      -2.953846      3.534717      3.422946
  C      -2.166775      5.361270      0.000000
  C       2.266120      4.393057      3.561502
  C       3.897524      4.034678      3.447869
  C      -1.908121      5.776144      3.140366
  C       5.015847      4.527810      1.241920
  O       1.957800      0.655005      2.890916
  O       8.263171      0.092549      0.696308
          12
   ETOT =    -2334.575098      T_instantaneous =    503.8032
  C      -0.099673      1.521222      0.191098
  C       3.352836      0.573620      0.111691
  C       3.727731      2.468167      0.401741
  C       0.277372      4.637269      1.367590
  C      -2.953752      3.534787      3.421987
  C      -2.165515      5.360983      0.001057
  C       2.266351      4.392417      3.560599
  C       3.898627      4.033852      3.448360
  C      -1.908597      5.776638      3.139502
  C       5.015464      4.528235      1.242368
  O       1.957322      0.655020      2.891078
  O       8.262658      0.092587      0.695828
          12
   ETOT =    -2334.582447      T_instantaneous =    508.3541
  C      -0.099703      1.521383      0.192017
  C       3.353143      0.574141      0.112036
  C       3.727857      2.468504      0.401331
  C       0.276453      4.636963      1.367912
  C      -2.953645      3.534883      3.421022
  C      -2.164242      5.360691      0.002131
  C       2.266620      4.391767      3.559688
  C       3.899697      4.033035      3.448836
  C      -1.909081      5.777104      3.138629
  C       5.015061      4.528642      1.242829
  O       1.956845      0.655040      2.891230
  O       8.262144      0.092624      0.695349
          12
   ETOT =    -2334.590919      T_instantaneous =    513.6540
  C      -0.099723      1.521552      0.192942
  C       3.353451      0.574702      0.112394
  C       3.727979      2.468815      0.400924
  C       0.275519      4.636653      1.368232
  C      -2.953524      3.535004      3.420051
  C      -2.162957      5.360395      0.003221
  C       2.266929      4.391108      3.558769
  C       3.900734      4.032229      3.449295
  C      -1.909571      5.777543      3.137749
  C       5.014640      4.529031      1.243304
  O       1.956371      0.655064      2.891371
  O       8.261631      0.092662      0.694869
          12
   ETOT =    -2334.600518      T_instantaneous =    519.7038
  C      -0.099734      1.521728      0.193876
  C       3.353759      0.575303      0.112766
  C       3.728098      2.469100      0.400519
  C       0.274571      4.636340      1.368549
  C      -2.953390      3.535150      3.419074
  C      -2.161658      5.360095      0.004328
  C       2.267278      4.390439      3.557842
  C       3.901737      4.031432      3.449738
  C      -1.910069      5.777953      3.136860
  C       5.014199      4.529403      1.243791
  O       1.955898      0.655092      2.891503
  O       8.261117      0.092700      0.694390
          12
   ETOT =    -2334.611249      T_instantaneous =    526.5046
  C      -0.099735      1.521911      0.194818
  C       3.354069      0.575944      0.113152
  C       3.728213      2.469360      0.400117
  C       0.273606      4.636024      1.368864
  C      -2.953243      3.535322      3.418091
  C      -2.160347      5.359790      0.005450
  C       2.267665      4.389761      3.556906
  C       3.902708      4.030644      3.450166
  C      -1.910574      5.778336      3.135964
  C       5.013739      4.529756      1.244292
  O       1.955428      0.655125      2.891624
  O       8.260604      0.092737      0.693911
          12
   ETOT =    -2334.623114      T_instantaneous =    534.0574
  C      -0.099726      1.522101      0.195767
  C       3.354379      0.576626      0.113552
  C       3.728325      2.469593      0.399718
  C       0.272627      4.635704      1.369176
  C      -2.953083      3.535520      3.417102
  C      -2.159023      5.359481      0.006590
  C       2.268091      4.389073      3.555963
  C       3.903645      4.029867      3.450577
  C      -1.911085      5.778692      3.135059
  C       5.013259      4.530092      1.244806
  O       1.954959      0.655163      2.891736
  O       8.260091      0.092775      0.693431
          12
   ETOT =    -2334.636111      T_instantaneous =    542.3633
  C      -0.099708      1.522298      0.196725
  C       3.354689      0.577348      0.113966
  C       3.728433      2.469801      0.399321
  C       0.271633      4.635381      1.369486
  C      -2.952909      3.535743      3.416107
  C      -2.157686      5.359166      0.007745
  C       2.268557      4.388376      3.555011
  C       3.904550      4.029099      3.450972
  C      -1.911604      5.779019      3.134147
  C       5.012761      4.530410      1.245334
  O       1.954492      0.655205      2.891837
  O       8.259577      0.092813      0.692952
          12
   ETOT =    -2334.650244      T_instantaneous =    551.4238
  C      -0.099681      1.522502      0.197690
  C       3.355001      0.578110      0.114394
  C       3.728538      2.469983      0.398927
  C       0.270623      4.635054      1.369792
  C      -2.952722      3.535992      3.415107
  C      -2.156336      5.358848      0.008917
  C       2.269062      4.387670      3.554052
  C       3.905421      4.028342      3.451351
  C      -1.912130      5.779319      3.133227
  C       5.012243      4.530710      1.245875
  O       1.954027      0.655251      2.891929
  O       8.259064      0.092851      0.692472
          12
   ETOT =    -2334.665517      T_instantaneous =    561.2402
  C      -0.099644      1.522714      0.198663
  C       3.355313      0.578912      0.114835
  C       3.728640      2.470140      0.398535
  C       0.269597      4.634724      1.370097
  C      -2.952522      3.536266      3.414100
  C      -2.154973      5.358525      0.010106
  C       2.269606      4.386954      3.553085
  C       3.906259      4.027594      3.451714
  C      -1.912663      5.779591      3.132298
  C       5.011706      4.530993      1.246429
  O       1.953564      0.655302      2.892010
  O       8.258551      0.092889      0.691993
