          12
   ETOT =    -1777.484384      T_instantaneous =    500.0000
  C       0.228042      1.614142     -0.984690
  C       1.946277      0.883429     -3.272168
  C       4.109821      1.548006     -0.610355
  C      -0.997590      3.237437     -3.570370
  C       5.199523      0.083925     -0.754538
  C       3.149961      4.272125      0.000000
  C       3.653691      3.125856     -2.855531
  C       0.060413      3.265221     -5.033700
  C       2.020974      5.448126     -1.750936
  C       5.625363      2.812258     -0.266390
  C       6.837480      0.021820     -0.424656
  C      -1.384615      5.563336     -4.763910
          12
   ETOT =    -1777.467872      T_instantaneous =    489.2616
  C       0.227968      1.614391     -0.983773
  C       1.946490      0.883940     -3.271897
  C       4.109933      1.548390     -0.610823
  C      -0.998502      3.237220     -3.569964
  C       5.199575      0.083858     -0.755431
  C       3.151225      4.271865      0.001093
  C       3.653891      3.125134     -2.856417
  C       0.061470      3.264404     -5.033160
  C       2.020582      5.448571     -1.751699
  C       5.624982      2.812634     -0.266019
  C       6.836885      0.021725     -0.424570
  C      -1.385159      5.563549     -4.764585
          12
   ETOT =    -1777.453355      T_instantaneous =    479.8338
  C       0.227905      1.614640     -0.982872
  C       1.946701      0.884469     -3.271610
  C       4.110081      1.548773     -0.611293
  C      -0.999388      3.237014     -3.569597
  C       5.199659      0.083823     -0.756311
  C       3.152481      4.271612      0.002160
  C       3.654080      3.124405     -2.857291
  C       0.062497      3.263594     -5.032583
  C       2.020206      5.448994     -1.752444
  C       5.624572      2.812983     -0.265656
  C       6.836240      0.021633     -0.424494
  C      -1.385694      5.563741     -4.765253
          12
   ETOT =    -1777.440831      T_instantaneous =    471.7141
  C       0.227852      1.614891     -0.981986
  C       1.946912      0.885015     -3.271309
  C       4.110265      1.549157     -0.611767
  C      -1.000246      3.236817     -3.569268
  C       5.199775      0.083819     -0.757178
  C       3.153727      4.271367      0.003202
  C       3.654257      3.123667     -2.858152
  C       0.063493      3.262792     -5.031969
  C       2.019847      5.449396     -1.753173
  C       5.624134      2.813305     -0.265301
  C       6.835545      0.021546     -0.424428
  C      -1.386221      5.563910     -4.765915
          12
   ETOT =    -1777.430293      T_instantaneous =    464.9002
  C       0.227810      1.615143     -0.981115
  C       1.947121      0.885578     -3.270992
  C       4.110485      1.549541     -0.612244
  C      -1.001078      3.236630     -3.568977
  C       5.199924      0.083846     -0.758033
  C       3.154965      4.271128      0.004219
  C       3.654424      3.122922     -2.859002
  C       0.064458      3.261998     -5.031317
  C       2.019504      5.449777     -1.753885
  C       5.623666      2.813600     -0.264955
  C       6.834799      0.021463     -0.424371
  C      -1.386739      5.564057     -4.766571
          12
   ETOT =    -1777.421740      T_instantaneous =    459.3907
  C       0.227779      1.615396     -0.980261
  C       1.947329      0.886158     -3.270661
  C       4.110742      1.549925     -0.612724
  C      -1.001884      3.236452     -3.568724
  C       5.200105      0.083905     -0.758875
  C       3.156194      4.270897      0.005210
  C       3.654580      3.122169     -2.859839
  C       0.065392      3.261211     -5.030628
  C       2.019178      5.450136     -1.754581
  C       5.623170      2.813867     -0.264617
  C       6.834003      0.021384     -0.424324
  C      -1.387248      5.564182     -4.767221
          12
   ETOT =    -1777.415168      T_instantaneous =    455.1839
  C       0.227759      1.615650     -0.979422
  C       1.947536      0.886756     -3.270315
  C       4.111034      1.550309     -0.613208
  C      -1.002662      3.236285     -3.568510
  C       5.200319      0.083995     -0.759704
  C       3.157414      4.270672      0.006176
  C       3.654724      3.121408     -2.860664
  C       0.066296      3.260432     -5.029901
  C       2.018868      5.450474     -1.755259
  C       5.622645      2.814107     -0.264287
  C       6.833157      0.021308     -0.424286
  C      -1.387749      5.564285     -4.767865
          12
   ETOT =    -1777.410575      T_instantaneous =    452.2781
  C       0.227749      1.615905     -0.978598
  C       1.947741      0.887371     -3.269954
  C       4.111362      1.550693     -0.613694
  C      -1.003413      3.236128     -3.568333
  C       5.200565      0.084117     -0.760520
  C       3.158625      4.270454      0.007116
  C       3.654857      3.120640     -2.861477
  C       0.067169      3.259661     -5.029137
  C       2.018574      5.450790     -1.755921
  C       5.622091      2.814320     -0.263965
  C       6.832260      0.021237     -0.424258
  C      -1.388241      5.564365     -4.768502
          12
   ETOT =    -1777.407957      T_instantaneous =    450.6721
  C       0.227750      1.616161     -0.977790
  C       1.947946      0.888003     -3.269578
  C       4.111727      1.551078     -0.614184
  C      -1.004138      3.235980     -3.568195
  C       5.200844      0.084269     -0.761324
  C       3.159828      4.270243      0.008031
  C       3.654979      3.119863     -2.862278
  C       0.068011      3.258897     -5.028335
  C       2.018296      5.451086     -1.756566
  C       5.621509      2.814506     -0.263652
  C       6.831313      0.021170     -0.424240
  C      -1.388725      5.564424     -4.769134
          12
   ETOT =    -1777.407312      T_instantaneous =    450.3647
  C       0.227761      1.616418     -0.976997
  C       1.948150      0.888653     -3.269187
  C       4.112128      1.551462     -0.614676
  C      -1.004836      3.235842     -3.568095
  C       5.201155      0.084454     -0.762114
  C       3.161022      4.270039      0.008921
  C       3.655090      3.119079     -2.863067
  C       0.068822      3.258141     -5.027497
  C       2.018035      5.451360     -1.757194
  C       5.620897      2.814665     -0.263348
  C       6.830315      0.021107     -0.424232
  C      -1.389200      5.564461     -4.769759
