          14
   ETOT =    -2643.912721      T_instantaneous =    500.0000
  C       1.078840      2.123906      2.122668
  C      -1.419548      3.469266      0.150382
  C       2.194244     -0.135987      3.130442
  C       2.561581      3.963782      1.614311
  C       0.020036      5.088100      0.000000
  C      -3.451544      3.182956      1.970234
  C       1.473951      5.205168      2.123635
  C       5.692521     -0.286201      2.108218
  C       5.869229      1.883610      0.041793
  C      -3.338374      5.575008      0.506495
  C       7.902554     -0.263756      1.275989
  C      -6.139956      5.628609      1.225456
  O       1.717931      0.262850      1.697299
  O      -3.403874      1.550628      1.987260
          14
   ETOT =    -2643.929778      T_instantaneous =    509.5537
  C       1.078760      2.124150      2.123587
  C      -1.419220      3.469847      0.150580
  C       2.194312     -0.135483      3.129999
  C       2.560606      3.963562      1.614780
  C       0.020139      5.088134     -0.000889
  C      -3.450348      3.182670      1.971292
  C       1.474126      5.204530      2.122791
  C       5.693672     -0.286964      2.108861
  C       5.868782      1.884172      0.041205
  C      -3.338787      5.575507      0.506847
  C       7.902033     -0.263615      1.276348
  C      -6.140569      5.628764      1.224557
  O       1.717610      0.262069      1.696749
  O      -3.403532      1.550798      1.987559
          14
   ETOT =    -2643.950008      T_instantaneous =    520.8873
  C       1.078690      2.124399      2.124502
  C      -1.418880      3.470456      0.150781
  C       2.194361     -0.134959      3.129499
  C       2.559592      3.963357      1.615262
  C       0.020230      5.088144     -0.001763
  C      -3.449148      3.182309      1.972349
  C       1.474318      5.203859      2.121926
  C       5.694851     -0.287718      2.109485
  C       5.868338      1.884723      0.040627
  C      -3.339206      5.575998      0.507203
  C       7.901478     -0.263469      1.276716
  C      -6.141165      5.628916      1.223653
  O       1.717303      0.261285      1.696241
  O      -3.403191      1.551027      1.987856
          14
   ETOT =    -2643.973407      T_instantaneous =    534.0048
  C       1.078632      2.124652      2.125412
  C      -1.418526      3.471092      0.150983
  C       2.194392     -0.134415      3.128941
  C       2.558541      3.963166      1.615758
  C       0.020309      5.088130     -0.002625
  C      -3.447945      3.181874      1.973405
  C       1.474529      5.203154      2.121039
  C       5.696061     -0.288463      2.110091
  C       5.867896      1.885261      0.040060
  C      -3.339631      5.576481      0.507562
  C       7.900889     -0.263320      1.277093
  C      -6.141745      5.629067      1.222746
  O       1.717008      0.260497      1.695775
  O      -3.402851      1.551314      1.988151
          14
   ETOT =    -2643.999999      T_instantaneous =    548.9100
  C       1.078584      2.124911      2.126316
  C      -1.418160      3.471757      0.151187
  C       2.194404     -0.133851      3.128325
  C       2.557452      3.962991      1.616266
  C       0.020376      5.088092     -0.003472
  C      -3.446738      3.181364      1.974461
  C       1.474758      5.202416      2.120132
  C       5.697299     -0.289200      2.110678
  C       5.867458      1.885787      0.039504
  C      -3.340063      5.576956      0.507926
  C       7.900266     -0.263166      1.277478
  C      -6.142309      5.629217      1.221834
  O       1.716726      0.259705      1.695353
  O      -3.402514      1.551661      1.988446
          14
   ETOT =    -2644.029796      T_instantaneous =    565.6062
  C       1.078548      2.125174      2.127217
  C      -1.417781      3.472450      0.151394
  C       2.194397     -0.133267      3.127651
  C       2.556325      3.962831      1.616788
  C       0.020430      5.088030     -0.004306
  C      -3.445528      3.180780      1.975516
  C       1.475005      5.201644      2.119204
  C       5.698567     -0.289928      2.111247
  C       5.867022      1.886300      0.038958
  C      -3.340501      5.577422      0.508293
  C       7.899608     -0.263009      1.277873
  C      -6.142856      5.629364      1.220919
  O       1.716457      0.258909      1.694973
  O      -3.402177      1.552067      1.988739
          14
   ETOT =    -2644.062778      T_instantaneous =    584.0976
  C       1.078523      2.125443      2.128112
  C      -1.417388      3.473170      0.151602
  C       2.194372     -0.132662      3.126919
  C       2.555159      3.962686      1.617322
  C       0.020473      5.087944     -0.005126
  C      -3.444315      3.180120      1.976571
  C       1.475271      5.200839      2.118255
  C       5.699865     -0.290647      2.111797
  C       5.866590      1.886802      0.038423
  C      -3.340946      5.577881      0.508663
  C       7.898916     -0.262847      1.278276
  C      -6.143387      5.629509      1.220000
  O       1.716200      0.258110      1.694636
  O      -3.401842      1.552532      1.989030
          14
   ETOT =    -2644.098965      T_instantaneous =    604.3894
  C       1.078508      2.125717      2.129002
  C      -1.416983      3.473919      0.151812
  C       2.194328     -0.132038      3.126129
  C       2.553956      3.962556      1.617870
  C       0.020503      5.087834     -0.005933
  C      -3.443098      3.179386      1.977625
  C       1.475554      5.200000      2.117285
  C       5.701191     -0.291358      2.112328
  C       5.866160      1.887291      0.037898
  C      -3.341397      5.578331      0.509038
  C       7.898190     -0.262682      1.278688
  C      -6.143901      5.629653      1.219076
  O       1.715957      0.257307      1.694342
  O      -3.401508      1.553056      1.989321
          14
   ETOT =    -2644.138369      T_instantaneous =    626.4863
  C       1.078505      2.125996      2.129888
  C      -1.416564      3.474696      0.152024
  C       2.194265     -0.131394      3.125281
  C       2.552715      3.962441      1.618430
  C       0.020520      5.087700     -0.006725
  C      -3.441878      3.178577      1.978678
  C       1.475855      5.199128      2.116294
  C       5.702548     -0.292060      2.112841
  C       5.865733      1.887769      0.037385
  C      -3.341854      5.578774      0.509416
  C       7.897429     -0.262512      1.279108
  C      -6.144399      5.629795      1.218149
  O       1.715727      0.256500      1.694090
  O      -3.401176      1.553639      1.989610
          14
   ETOT =    -2644.181001      T_instantaneous =    650.3938
  C       1.078513      2.126280      2.130768
  C      -1.416133      3.475500      0.152237
  C       2.194184     -0.130730      3.124375
  C       2.551435      3.962341      1.619004
  C       0.020526      5.087542     -0.007504
  C      -3.440655      3.177693      1.979731
  C       1.476175      5.198223      2.115283
  C       5.703934     -0.292753      2.113334
  C       5.865309      1.888234      0.036881
  C      -3.342318      5.579208      0.509797
  C       7.896633     -0.262339      1.279538
  C      -6.144880      5.629935      1.217218
  O       1.715510      0.255689      1.693881
  O      -3.400845      1.554281      1.989898
