          14
   ETOT =    -2080.188180      T_instantaneous =    500.0000
  C       1.183800      2.398175      0.062690
  C      -0.889216      3.242595      0.804783
  C       1.983879      2.144473      2.959809
  C       4.272623      0.000000      0.000000
  C       1.172661      4.704380      1.304624
  C       3.640480      1.924231      2.907372
  C       0.199159      5.272443      0.051967
  C       3.526381      4.117487      3.127037
  C       4.778737      5.127556      0.264509
  C       6.432955      1.665615      2.420092
  C       1.625371      6.512394      3.845657
  C       4.446977      6.289666      1.576935
  C       5.630384      4.311443      4.074170
  C       5.451684      5.854551      2.868233
          14
   ETOT =    -2080.187576      T_instantaneous =    499.6471
  C       1.183686      2.398447      0.063615
  C      -0.888935      3.243157      0.805119
  C       1.984047      2.144908      2.959340
  C       4.271674     -0.000186      0.000258
  C       1.172710      4.704415      1.303795
  C       3.641718      1.923999      2.908473
  C       0.199314      5.271820      0.051233
  C       3.527541      4.116636      3.127546
  C       4.778181      5.128136      0.263774
  C       6.432571      1.666155      2.420393
  C       1.624867      6.512383      3.845915
  C       4.446362      6.289871      1.576259
  C       5.630049      4.310518      4.073436
  C       5.452091      5.854751      2.868722
          14
   ETOT =    -2080.189241      T_instantaneous =    500.6019
  C       1.183554      2.398739      0.064558
  C      -0.888623      3.243726      0.805446
  C       1.984260      2.145341      2.958863
  C       4.270727     -0.000366      0.000524
  C       1.172732      4.704457      1.302932
  C       3.642924      1.923786      2.909573
  C       0.199489      5.271167      0.050536
  C       3.528711      4.115776      3.128060
  C       4.777616      5.128747      0.263079
  C       6.432171      1.666700      2.420695
  C       1.624366      6.512361      3.846163
  C       4.445778      6.290034      1.575581
  C       5.629698      4.309610      4.072676
  C       5.452472      5.854930      2.869193
          14
   ETOT =    -2080.193208      T_instantaneous =    502.8657
  C       1.183404      2.399051      0.065520
  C      -0.888278      3.244301      0.805762
  C       1.984518      2.145774      2.958380
  C       4.269782     -0.000540      0.000797
  C       1.172726      4.704505      1.302035
  C       3.644097      1.923594      2.910670
  C       0.199684      5.270486      0.049876
  C       3.529890      4.114909      3.128579
  C       4.777041      5.129390      0.262424
  C       6.431754      1.667248      2.420997
  C       1.623869      6.512330      3.846403
  C       4.445225      6.290155      1.574900
  C       5.629333      4.308718      4.071889
  C       5.452829      5.855087      2.869646
          14
   ETOT =    -2080.199468      T_instantaneous =    506.4403
  C       1.183238      2.399381      0.066500
  C      -0.887902      3.244881      0.806069
  C       1.984819      2.146206      2.957890
  C       4.268839     -0.000708      0.001078
  C       1.172692      4.704560      1.301105
  C       3.645238      1.923423      2.911764
  C       0.199900      5.269776      0.049254
  C       3.531080      4.114034      3.129102
  C       4.776458      5.130066      0.261809
  C       6.431322      1.667801      2.421299
  C       1.623376      6.512289      3.846635
  C       4.444702      6.290234      1.574218
  C       5.628953      4.307843      4.071076
  C       5.453161      5.855224      2.870080
          14
   ETOT =    -2080.208014      T_instantaneous =    511.3272
  C       1.183053      2.399731      0.067499
  C      -0.887494      3.245468      0.806366
  C       1.985166      2.146637      2.957393
  C       4.267899     -0.000870      0.001366
  C       1.172631      4.704620      1.300140
  C       3.646345      1.923272      2.912856
  C       0.200135      5.269036      0.048669
  C       3.532280      4.113150      3.129631
  C       4.775865      5.130773      0.261235
  C       6.430873      1.668357      2.421601
  C       1.622886      6.512239      3.846857
  C       4.444210      6.290271      1.573533
  C       5.628558      4.306985      4.070237
  C       5.453468      5.855339      2.870495
          14
   ETOT =    -2080.218853      T_instantaneous =    517.5273
  C       1.182852      2.400100      0.068517
  C      -0.887054      3.246061      0.806653
  C       1.985557      2.147068      2.956889
  C       4.266961     -0.001025      0.001661
  C       1.172541      4.704687      1.299142
  C       3.647420      1.923141      2.913946
  C       0.200390      5.268268      0.048121
  C       3.533490      4.112258      3.130165
  C       4.775263      5.131511      0.260701
  C       6.430407      1.668918      2.421904
  C       1.622401      6.512178      3.847071
  C       4.443749      6.290267      1.572845
  C       5.628148      4.306142      4.069372
  C       5.453751      5.855434      2.870892
          14
   ETOT =    -2080.231984      T_instantaneous =    525.0422
  C       1.182633      2.400489      0.069554
  C      -0.886581      3.246661      0.806931
  C       1.985992      2.147497      2.956378
  C       4.266025     -0.001174      0.001963
  C       1.172424      4.704760      1.298110
  C       3.648463      1.923030      2.915033
  C       0.200665      5.267470      0.047611
  C       3.534711      4.111359      3.130703
  C       4.774651      5.132282      0.260207
  C       6.429926      1.669483      2.422208
  C       1.621919      6.512108      3.847276
  C       4.443318      6.290221      1.572156
  C       5.627723      4.305317      4.068480
  C       5.454008      5.855507      2.871270
          14
   ETOT =    -2080.247409      T_instantaneous =    533.8730
  C       1.182396      2.400898      0.070609
  C      -0.886077      3.247266      0.807199
  C       1.986472      2.147925      2.955860
  C       4.265091     -0.001317      0.002273
  C       1.172279      4.704839      1.297044
  C       3.649473      1.922941      2.916117
  C       0.200959      5.266644      0.047138
  C       3.535941      4.110451      3.131247
  C       4.774031      5.133084      0.259753
  C       6.429428      1.670052      2.422511
  C       1.621441      6.512028      3.847472
  C       4.442918      6.290132      1.571463
  C       5.627283      4.304507      4.067562
  C       5.454240      5.855559      2.871629
          14
   ETOT =    -2080.265130      T_instantaneous =    544.0212
  C       1.182142      2.401326      0.071683
  C      -0.885541      3.247877      0.807456
  C       1.986996      2.148353      2.955336
  C       4.264159     -0.001453      0.002591
  C       1.172107      4.704925      1.295944
  C       3.650450      1.922871      2.917199
  C       0.201274      5.265788      0.046702
  C       3.537182      4.109535      3.131796
  C       4.773401      5.133919      0.259340
  C       6.428914      1.670624      2.422816
  C       1.620966      6.511938      3.847659
  C       4.442549      6.290003      1.570769
  C       5.626828      4.303714      4.066618
  C       5.454447      5.855590      2.871969
