          12
   ETOT =    -4615.854556      T_instantaneous =    500.0000
  C       0.972501      2.448097      4.355729
  C       2.376210      4.101219      1.893052
  O       1.674886     -0.090472      1.017741
  O       1.012031      1.328795      1.261658
  O       4.352920      1.037511      0.833711
  O       3.782779     -0.084606      2.731294
  O       3.372785      3.234343      0.814156
  O       4.912698      0.609890      2.103394
  O       5.923673      0.479327      0.000000
  O       5.942135      1.805517      2.988086
  O       6.892446      3.033961      1.014360
  O       4.979787      4.196486      4.373963
          12
   ETOT =    -4615.851441      T_instantaneous =    498.0282
  C       0.972455      2.448388      4.356627
  C       2.376612      4.101791      1.893298
  O       1.674908     -0.090004      1.017334
  O       1.011223      1.328620      1.261977
  O       4.352987      1.037485      0.832931
  O       3.783758     -0.084836      2.732290
  O       3.373006      3.233793      0.813426
  O       4.913628      0.609100      2.103834
  O       5.923203      0.479663     -0.000641
  O       5.941779      1.805852      2.988478
  O       6.892034      3.033867      1.014510
  O       4.979346      4.196564      4.373366
          12
   ETOT =    -4615.850363      T_instantaneous =    497.3860
  C       0.972412      2.448678      4.357518
  C       2.377057      4.102321      1.893498
  O       1.674916     -0.089499      1.016936
  O       1.010432      1.328411      1.262293
  O       4.353075      1.037455      0.832132
  O       3.784740     -0.085061      2.733285
  O       3.373194      3.233273      0.812731
  O       4.914557      0.608299      2.104284
  O       5.922715      0.480012     -0.001273
  O       5.941423      1.806199      2.988863
  O       6.891614      3.033762      1.014668
  O       4.978905      4.196637      4.372765
          12
   ETOT =    -4615.851319      T_instantaneous =    498.0726
  C       0.972370      2.448968      4.358402
  C       2.377546      4.102810      1.893654
  O       1.674909     -0.088957      1.016546
  O       1.009658      1.328169      1.262606
  O       4.353183      1.037421      0.831316
  O       3.785724     -0.085281      2.734281
  O       3.373348      3.232782      0.812073
  O       4.915483      0.607486      2.104744
  O       5.922210      0.480374     -0.001897
  O       5.941066      1.806558      2.989241
  O       6.891188      3.033646      1.014835
  O       4.978465      4.196705      4.372161
          12
   ETOT =    -4615.854311      T_instantaneous =    500.0874
  C       0.972331      2.449257      4.359278
  C       2.378079      4.103259      1.893765
  O       1.674887     -0.088378      1.016164
  O       1.008902      1.327893      1.262916
  O       4.353312      1.037382      0.830481
  O       3.786713     -0.085495      2.735278
  O       3.373468      3.232321      0.811450
  O       4.916408      0.606663      2.105213
  O       5.921686      0.480748     -0.002512
  O       5.940709      1.806929      2.989611
  O       6.890756      3.033520      1.015011
  O       4.978026      4.196768      4.371552
          12
   ETOT =    -4615.859334      T_instantaneous =    503.4301
  C       0.972294      2.449545      4.360147
  C       2.378655      4.103666      1.893832
  O       1.674850     -0.087761      1.015791
  O       1.008163      1.327583      1.263224
  O       4.353461      1.037339      0.829628
  O       3.787704     -0.085704      2.736274
  O       3.373554      3.231890      0.810863
  O       4.917330      0.605828      2.105692
  O       5.921144      0.481134     -0.003119
  O       5.940351      1.807312      2.989974
  O       6.890316      3.033382      1.015194
  O       4.977587      4.196825      4.370939
          12
   ETOT =    -4615.866394      T_instantaneous =    508.1004
  C       0.972259      2.449832      4.361009
  C       2.379274      4.104032      1.893853
  O       1.674798     -0.087108      1.015426
  O       1.007442      1.327239      1.263529
  O       4.353631      1.037292      0.828758
  O       3.788698     -0.085907      2.737271
  O       3.373608      3.231489      0.810312
  O       4.918250      0.604981      2.106180
  O       5.920584      0.481533     -0.003717
  O       5.939993      1.807707      2.990329
  O       6.889869      3.033234      1.015386
  O       4.977148      4.196878      4.370323
          12
   ETOT =    -4615.875476      T_instantaneous =    514.0984
  C       0.972225      2.450118      4.361863
  C       2.379938      4.104357      1.893829
  O       1.674731     -0.086418      1.015070
  O       1.006738      1.326862      1.263832
  O       4.353822      1.037241      0.827870
  O       3.789696     -0.086105      2.738268
  O       3.373627      3.231117      0.809797
  O       4.919168      0.604124      2.106678
  O       5.920006      0.481945     -0.004307
  O       5.939634      1.808113      2.990677
  O       6.889416      3.033075      1.015587
  O       4.976710      4.196925      4.369702
          12
   ETOT =    -4615.886585      T_instantaneous =    521.4257
  C       0.972194      2.450404      4.362710
  C       2.380644      4.104640      1.893761
  O       1.674650     -0.085690      1.014722
  O       1.006052      1.326451      1.264131
  O       4.354034      1.037185      0.826965
  O       3.790698     -0.086297      2.739265
  O       3.373613      3.230775      0.809318
  O       4.920083      0.603256      2.107186
  O       5.919410      0.482370     -0.004887
  O       5.939274      1.808531      2.991018
  O       6.888956      3.032905      1.015796
  O       4.976273      4.196967      4.369077
          12
   ETOT =    -4615.899728      T_instantaneous =    530.0834
  C       0.972166      2.450689      4.363550
  C       2.381394      4.104883      1.893648
  O       1.674553     -0.084926      1.014382
  O       1.005383      1.326006      1.264428
  O       4.354267      1.037124      0.826042
  O       3.791703     -0.086483      2.740262
  O       3.373566      3.230464      0.808875
  O       4.920996      0.602376      2.107703
  O       5.918796      0.482807     -0.005459
  O       5.938914      1.808961      2.991351
  O       6.888489      3.032725      1.016014
  O       4.975836      4.197003      4.368449
