          12
   ETOT =    -4058.627949      T_instantaneous =    500.0000
  C       1.039547      1.677207     -3.183306
  C      -0.900748      2.492033     -3.174446
  C       2.285337      3.468835     -0.110997
  C       4.046854      3.204037     -3.087582
  O      -1.467042      2.547485     -0.729635
  O       1.129810      3.162176     -1.111266
  O      -0.198775      3.868508     -0.623525
  O       2.609205      2.645661     -1.885168
  O       1.718053      3.669921     -3.181982
  O       1.941801      4.976322     -0.343678
  O       5.952925      1.307609      0.000000
  O       2.867733      4.043283     -3.986434
          12
   ETOT =    -4058.637004      T_instantaneous =    505.9202
  C       1.039411      1.677393     -3.182357
  C      -0.900502      2.492557     -3.174093
  C       2.285482      3.469326     -0.111454
  C       4.045883      3.203708     -3.087255
  O      -1.466943      2.547536     -0.730296
  O       1.130835      3.161961     -1.110250
  O      -0.198571      3.867963     -0.624231
  O       2.610161      2.644906     -1.884764
  O       1.717586      3.670270     -3.182636
  O       1.941514      4.976732     -0.343341
  O       5.952492      1.307602      0.000038
  O       2.867173      4.043341     -3.987087
          12
   ETOT =    -4058.647648      T_instantaneous =    512.8816
  C       1.039257      1.677600     -3.181409
  C      -0.900237      2.493071     -3.173727
  C       2.285613      3.469866     -0.111922
  C       4.044879      3.203388     -3.086930
  O      -1.466822      2.547602     -0.730968
  O       1.131830      3.161740     -1.109218
  O      -0.198382      3.867403     -0.624938
  O       2.611151      2.644151     -1.884381
  O       1.717111      3.670616     -3.183296
  O       1.941240      4.977113     -0.342995
  O       5.952060      1.307594      0.000077
  O       2.866631      4.043384     -3.987729
          12
   ETOT =    -4058.659874      T_instantaneous =    520.8820
  C       1.039083      1.677829     -3.180459
  C      -0.899951      2.493575     -3.173347
  C       2.285729      3.470455     -0.112399
  C       4.043842      3.203077     -3.086609
  O      -1.466681      2.547685     -0.731651
  O       1.132796      3.161512     -1.108168
  O      -0.198205      3.866829     -0.625645
  O       2.612176      2.643394     -1.884017
  O       1.716629      3.670961     -3.183962
  O       1.940978      4.977466     -0.342641
  O       5.951628      1.307586      0.000115
  O       2.866107      4.043412     -3.988359
          12
   ETOT =    -4058.673689      T_instantaneous =    529.9186
  C       1.038891      1.678080     -3.179510
  C      -0.899646      2.494069     -3.172952
  C       2.285830      3.471093     -0.112885
  C       4.042771      3.202775     -3.086290
  O      -1.466519      2.547784     -0.732344
  O       1.133733      3.161278     -1.107101
  O      -0.198043      3.866240     -0.626354
  O       2.613235      2.642637     -1.883674
  O       1.716138      3.671303     -3.184635
  O       1.940730      4.977789     -0.342279
  O       5.951196      1.307578      0.000153
  O       2.865601      4.043425     -3.988977
          12
   ETOT =    -4058.689074      T_instantaneous =    539.9890
  C       1.038679      1.678353     -3.178560
  C      -0.899322      2.494553     -3.172544
  C       2.285917      3.471780     -0.113381
  C       4.041667      3.202482     -3.085974
  O      -1.466335      2.547898     -0.733049
  O       1.134640      3.161038     -1.106018
  O      -0.197894      3.865635     -0.627063
  O       2.614328      2.641878     -1.883351
  O       1.715640      3.671643     -3.185313
  O       1.940494      4.978084     -0.341909
  O       5.950764      1.307570      0.000191
  O       2.865112      4.043424     -3.989584
          12
   ETOT =    -4058.706027      T_instantaneous =    551.0908
  C       1.038449      1.678648     -3.177610
  C      -0.898977      2.495027     -3.172122
  C       2.285990      3.472515     -0.113887
  C       4.040529      3.202198     -3.085660
  O      -1.466130      2.548028     -0.733764
  O       1.135517      3.160791     -1.104918
  O      -0.197759      3.865017     -0.627774
  O       2.615455      2.641119     -1.883048
  O       1.715135      3.671980     -3.185997
  O       1.940271      4.978350     -0.341530
  O       5.950333      1.307562      0.000229
  O       2.864642      4.043407     -3.990179
          12
   ETOT =    -4058.724548      T_instantaneous =    563.2213
  C       1.038200      1.678965     -3.176660
  C      -0.898613      2.495491     -3.171686
  C       2.286048      3.473300     -0.114402
  C       4.039358      3.201923     -3.085350
  O      -1.465904      2.548174     -0.734490
  O       1.136364      3.160537     -1.103801
  O      -0.197638      3.864383     -0.628485
  O       2.616617      2.640358     -1.882766
  O       1.714621      3.672316     -3.186688
  O       1.940061      4.978588     -0.341144
  O       5.949901      1.307553      0.000267
  O       2.864190      4.043375     -3.990763
          12
   ETOT =    -4058.744628      T_instantaneous =    576.3780
  C       1.037932      1.679305     -3.175710
  C      -0.898230      2.495944     -3.171235
  C       2.286091      3.474133     -0.114926
  C       4.038154      3.201657     -3.085041
  O      -1.465657      2.548337     -0.735227
  O       1.137183      3.160277     -1.102668
  O      -0.197530      3.863735     -0.629196
  O       2.617812      2.639597     -1.882504
  O       1.714099      3.672649     -3.187384
  O       1.939864      4.978797     -0.340749
  O       5.949470      1.307545      0.000305
  O       2.863755      4.043328     -3.991335
          12
   ETOT =    -4058.766265      T_instantaneous =    590.5583
  C       1.037645      1.679666     -3.174760
  C      -0.897826      2.496388     -3.170771
  C       2.286121      3.475015     -0.115459
  C       4.036917      3.201400     -3.084736
  O      -1.465389      2.548515     -0.735975
  O       1.137971      3.160010     -1.101518
  O      -0.197437      3.863072     -0.629909
  O       2.619043      2.638834     -1.882262
  O       1.713570      3.672981     -3.188087
  O       1.939680      4.978977     -0.340345
  O       5.949039      1.307536      0.000342
  O       2.863338      4.043266     -3.991895
